12
Coordinates from ORCA-job benzene_0_1_bp86_6-31gpol.mecp
  C   1.38675541216718     -0.08227055385313      0.02626928494755
  C   0.46855309544796     -1.16097631484641      0.27890459184002
  C   -0.93198453960326     -1.02459991047461     -0.02109356235140
  C   -1.44571679121497      0.22754963365701     -0.28913305340822
  C   -0.53954537571627      1.32652685111644      0.15112726931063
  C   0.89109422961442      1.17723876104724     -0.24059258650066
  H   2.45546521204509     -0.31012325180361     -0.08223697520306
  H   0.86955599213346     -2.15826160996148      0.48917014748997
  H   -1.53472324342943     -1.93145817058756     -0.16102559917476
  H   -2.43098736805914      0.39150102744820     -0.73862142138087
  H   -0.62875843902077      1.48986064565546      1.25023746772708
  H   1.49764181563571      1.98905289260246     -0.65699556329625
