41
Coordinates from ORCA-job tBu3C--Cl_0_1_bp86_xtb_6-31gpol_Int-SN1.scan
  C   -1.52214948736881      0.31596764395000     -0.23100333409369
  C   -0.10451695431365     -0.26273623121455      0.00764510235728
  Cl  -3.13394151460104     -2.52247338169502      1.28734420185371
  C   -2.22745484384660      0.08673232603785     -1.59186511553450
  C   -2.13044364607230      1.30745806793419      0.79293721793034
  C   -2.15714392254341      0.71379346327731      2.23892105835440
  C   -3.58956824605516      1.78730617105766      0.57755300056005
  C   -1.26874616561884      2.61705731424810      0.78776980733733
  C   -0.05226329976909     -1.80573723162219     -0.23808317717127
  C   0.52974660991713     -0.10407989101368      1.41413175080475
  C   0.89306428804611      0.45012944751579     -0.96921827371169
  C   -1.64997970354350     -0.98750213481033     -2.55004052208337
  C   -2.17853953095099      1.42480797808333     -2.40710422759003
  C   -3.71663100426238     -0.35401228151910     -1.41324911729246
  H   -0.20589410521822      2.43231566067570      0.87617913149338
  H   -1.58059510690951      3.22818132119419      1.63138618860903
  H   -1.44093796565159      3.17651226557659     -0.12804714885554
  H   -4.28137433246376      0.97234811251240      0.76133691439590
  H   -3.77723776065212      2.22147734646383     -0.39675703231016
  H   -3.78684371026144      2.56553862564907      1.31377230417802
  H   -2.38848779188772     -0.34917336522034      2.19270704754828
  H   -2.95156892386419      1.20434823780445      2.79595809641234
  H   -1.23835076224292      0.87505421575462      2.78448346221495
  H   -0.60006574661896     -0.85946783707723     -2.78304043203579
  H   -2.19430697228913     -0.90933549760024     -3.49035349488791
  H   -1.82342168974485     -1.97933070630060     -2.14663629490217
  H   0.55132502769124      0.46561810376413     -1.99614940730140
  H   1.83950278714202     -0.08400444052381     -0.93219219118752
  H   1.06125451642864      1.47599656958683     -0.65197030159767
  H   0.01195602904776     -0.73322495881319      2.13008939535571
  H   0.56636320591853      0.91659125441384      1.77453407600684
  H   1.55958440190646     -0.45255764925336      1.34644859563538
  H   -0.97579881913519     -2.26268992407604      0.11381195144102
  H   0.76741451517332     -2.21793354890477      0.34523470512892
  H   0.12728982484362     -2.06850730164869     -1.27081918228474
  H   -1.16751289038132      1.61418270009982     -2.75824533525212
  H   -2.50595332781637      2.28608151396679     -1.83910775592649
  H   -2.83097574619425      1.31673096138272     -3.27028604405706
  H   -3.80065262630165     -1.01516541608895     -0.55220797941376
  H   -4.01600007744548     -0.91495616979296     -2.29516150648756
  H   -4.40012696539024      0.47746709872586     -1.31671266664069
