41
Coordinates from ORCA-job tBu3C--Cl_0_1_bp86_xtb_6-31gpol_Int-SN1.scan
  C   -1.50712071942610      0.34250258725163     -0.24546377925264
  C   -0.09912470473666     -0.24563173307933      0.00947266946576
  Cl  -3.20805057239068     -2.65165740516094      1.36134777874315
  C   -2.21250928887024      0.09311054097027     -1.59978652091449
  C   -2.13068879073628      1.31940655678025      0.77941070577452
  C   -2.18093746644570      0.69023461043616      2.21055795255971
  C   -3.58533870312140      1.80997460736952      0.55541809214893
  C   -1.26533060737930      2.62684581230368      0.80994129912088
  C   -0.07953938955045     -1.79454741520541     -0.20713787481957
  C   0.53945771340544     -0.07458170810903      1.41290177982394
  C   0.91038412139279      0.43661445266903     -0.97777251401229
  C   -1.62586859751126     -0.97187059055784     -2.56329113964273
  C   -2.19862065362494      1.42911047074291     -2.42078426324961
  C   -3.68846750266732     -0.38243437341977     -1.39514817532383
  H   -0.19935603986087      2.43935289329946      0.80038431325465
  H   -1.51175445676424      3.17822725704175      1.71408297759303
  H   -1.50317485578524      3.24843720574147     -0.04993648329458
  H   -4.28680615432121      1.00545832092798      0.74926562451188
  H   -3.76921158025588      2.23288234627126     -0.42466393933516
  H   -3.77357544023355      2.59867264236465      1.28310111070676
  H   -2.42506952460335     -0.36932973043274      2.14305156677332
  H   -2.97535360372900      1.17870943411246      2.76974908593349
  H   -1.26609973369015      0.82768176070244      2.76873339556285
  H   -0.57289303155136     -0.84479749527117     -2.78319940961807
  H   -2.16180642708476     -0.88016667941529     -3.50742227281143
  H   -1.80561908155326     -1.96887093854760     -2.17527308692852
  H   0.52643899845921      0.54040344405263     -1.98441239378052
  H   1.81436198765459     -0.16657820096441     -1.01247315022115
  H   1.16996469163905      1.42828815749955     -0.61509748622630
  H   0.03654822306644     -0.71009852481313      2.13406983265466
  H   0.56250639518476      0.94686306157884      1.77262460961842
  H   1.57355869901878     -0.40924715340848      1.33782592575989
  H   -1.00575539731601     -2.23358398679617      0.16191365862798
  H   0.73944357218969     -2.20973913231058      0.37533975538654
  H   0.08418886937815     -2.07882396689732     -1.23658611032839
  H   -1.21863941148117      1.57886124222712     -2.86750924136831
  H   -2.43051500784411      2.30356092609864     -1.82660110688023
  H   -2.93335751769549      1.34750114707783     -3.21811696830272
  H   -3.74874873510044     -1.05008628462030     -0.53642041902049
  H   -3.99011382738512     -0.94572967568648     -2.27498240170726
  H   -4.38738888197318      0.43388394967645     -1.28311992998203
