14
Coordinates from ORCA-job tBu3C--Cl_0_1_bp86_xtb_6-31gpol_Int-SN1.scan.QMRegion
  C   -1.50160370477214      0.35175627537552     -0.25023299146639
  C   -0.09663103401848     -0.24116797428054      0.00825722079419
  Cl  -3.24640695533840     -2.72098087574567      1.40020567324875
  C   -2.20875632546354      0.09744662177763     -1.60214371207055
  C   -2.12897493513197      1.32398286560639      0.77606456721456
  H   -0.08969951477824     -1.32599627524650     -0.13790193984163
  H   0.35592632913445     -0.11987423155373      0.99899282063042
  H   0.62016199933729      0.23576543527656     -0.69207942097570
  H   -1.79358983264073     -0.65366284606185     -2.28480413340798
  H   -2.20507833176850      1.04321698634114     -2.18411739052875
  H   -3.23970724884391     -0.24185310275355     -1.45380539019645
  H   -2.16784177325748      0.87741791328817      1.77489338259396
  H   -3.15635155255655      1.67124027892964      0.61741863488112
  H   -1.51727783780707      2.24978355417445      0.80292324116499
