14
Coordinates from ORCA-job tBu3C--Cl_0_1_bp86_xtb_6-31gpol_Int-SN1.scan.QMRegion
  C   -1.48666894711714      0.37840801165265     -0.26466791156254
  C   -0.08995242320510     -0.22565612081034      0.00307144550701
  Cl  -3.45191514000522     -3.09242697203171      1.59304887096840
  C   -2.19894402835639      0.10971911334316     -1.60936626526953
  C   -2.12256169276030      1.33746970486721      0.76641158733268
  H   -0.09388477267691     -1.31236226103296     -0.13669243777149
  H   0.36369486822340     -0.10184394347405      0.99355341960135
  H   0.63383573062714      0.23944019904327     -0.69806503415028
  H   -1.78301443514103     -0.64043345468695     -2.29344019313841
  H   -2.20761130153028      1.05205377231770     -2.19686012643554
  H   -3.22688767843543     -0.23731443232523     -1.45116688244693
  H   -2.16544371415177      0.87903543458711      1.76078847546209
  H   -3.14945019626540      1.68743857039611      0.60690517282723
  H   -1.51274454784502      2.26397909195384      0.80717682757686
