14
Coordinates from ORCA-job tBu3C--Cl_0_1_bp86_xtb_6-31gpol_Int-SN1.scan.QMRegion
  C   -1.48561070121259      0.38044293082095     -0.26587585793279
  C   -0.08768418098110     -0.22208894024030      0.00052626685631
  Cl  -3.62781980871483     -3.40553271887589      1.76324420212355
  C   -2.19727053256341      0.11383544051174     -1.61164487361123
  C   -2.12015711657541      1.34140675417674      0.76471059862140
  H   -0.07789414157204     -1.30837798378315     -0.14224807316493
  H   0.36598180165960     -0.09823272678346      0.99131504819228
  H   0.63544409036934      0.24649908118402     -0.69936881209037
  H   -1.78104125874036     -0.63639986287828     -2.29591222728165
  H   -2.20235528178359      1.05652163975130     -2.19910568974952
  H   -3.22870806385624     -0.22838882851320     -1.46596543968233
  H   -2.16318551564992      0.89553635799765      1.76478881495692
  H   -3.14716690884862      1.69184091943958      0.60497799297081
  H   -1.51050213498207      2.26846609872387      0.80220622455821
