41
Coordinates from ORCA-job tBu3C--Cl_0_1_bp86_xtb_6-31gpol_Int-SN1.scan
  C   -1.49455857958110      0.36464479547993     -0.25714446925160
  C   -0.09429084059219     -0.23390769012658      0.00562794177486
  Cl  -3.28379446999074     -2.78800602950859      1.43383985283599
  C   -2.20412615634876      0.10295130276687     -1.60492228822674
  C   -2.12594270176732      1.32948460605096      0.77168441594150
  C   -2.17747292054998      0.67039501613301      2.19061816309575
  C   -3.58052620098000      1.82204105677895      0.54815469582744
  C   -1.26361895422457      2.63772889508861      0.82044873357259
  C   -0.10772345257445     -1.78534703428767     -0.20255049949582
  C   0.54698608677609     -0.06217797056752      1.40831220472475
  C   0.92400547955377      0.43053916763664     -0.98382542606554
  C   -1.61688635297813     -0.95999117934152     -2.57114958293525
  C   -2.20886246232832      1.43498388851581     -2.43135065307216
  C   -3.67235144648896     -0.38693067462824     -1.37100526806868
  H   -0.19726256926881      2.45227058640330      0.80408537956083
  H   -1.50835193411544      3.17626794672778      1.73275735142428
  H   -1.50514180714270      3.27023148709446     -0.03057432653113
  H   -4.28550910999615      1.01923875965566      0.73526328360629
  H   -3.76208084737233      2.25036633164980     -0.43005434044208
  H   -3.76798900892722      2.60660162276277      1.28052770961274
  H   -2.36198161510369     -0.39954156855548      2.10293854916932
  H   -3.00926344948693      1.10356640379181      2.74046516944139
  H   -1.28208150637924      0.84709080742832      2.77017245809063
  H   -0.56544448748218     -0.82765426984647     -2.79544941565637
  H   -2.15845381981522     -0.86968100013268     -3.51222254202304
  H   -1.78820668319535     -1.95909363915896     -2.18523489593553
  H   0.53839147056373      0.54218922594894     -1.98912532716854
  H   1.81844292637740     -0.18653474510186     -1.02156049327998
  H   1.19947806143667      1.41798655088806     -0.62091334581721
  H   0.04336026939600     -0.69059701802518      2.13490709700020
  H   0.57639140097788      0.96053294476889      1.76406688210848
  H   1.57872359311894     -0.40377180899192      1.33155360526175
  H   -1.06433127962149     -2.19932468131264      0.11364083004298
  H   0.66393599161283     -2.22296341280949      0.42581430127874
  H   0.10464250222820     -2.07572067332641     -1.22207158995915
  H   -1.23523296589759      1.58643401006287     -2.89153460619764
  H   -2.43462014485418      2.31090151460496     -1.83673248551705
  H   -2.95411468991326      1.34809329959621     -3.21829774842100
  H   -3.72538629729759     -1.00371959252926     -0.47476858021973
  H   -3.96628581066828     -1.00646544583148     -2.21457646203987
  H   -4.38244765039919      0.42569664674731     -1.30582081104640
