41
Coordinates from ORCA-job tBu3CCl_0_1_bp86_xtb_6-31gpol.opt.activeRegion
  C   -1.70918136022184     -0.01292648634962     -0.05477825146821
  C   -0.11868842227995     -0.39735117424483      0.00139540247446
  Cl  -2.55226767537758     -1.49725494211159      0.74048425826353
  C   -2.34759223371562      0.03116679777004     -1.56120912301862
  C   -2.14341576011843      1.23807559540396      0.90806875718022
  C   -2.06457569195291      0.93999443694608      2.43964487336343
  C   -3.62966371449061      1.63700286193276      0.70587784419032
  C   -1.31746184716268      2.53021278423419      0.67447815252373
  C   0.21021023810106     -1.87081943492776     -0.40074934477700
  C   0.45273271387486     -0.29074786439721      1.44041295250985
  C   0.78015546731515      0.50502297525103     -0.88422459130256
  C   -1.79006240446418     -1.10393971894260     -2.46115122964499
  C   -2.07530603580531      1.35445611776036     -2.32386197651355
  C   -3.89182852629013     -0.19849636784595     -1.62206925039900
  H   -0.29247550206684      2.42697564732931      1.01481595535683
  H   -1.77480536194935      3.32749486198199      1.25835151611019
  H   -1.31451031852354      2.83509171850970     -0.36490160617136
  H   -4.27994532566324      0.77602915451793      0.82265708578336
  H   -3.79909329975941      2.11127163241872     -0.25283614011077
  H   -3.90228611861228      2.36657513160923      1.46623498400705
  H   -2.45165785237133     -0.04416630673558      2.68073863633321
  H   -2.68198329828111      1.66918668321642      2.96020578280914
  H   -1.06660677744266      1.03558333390160      2.84482204579286
  H   -0.75263124656350     -0.94270590770653     -2.72663317211325
  H   -2.35118730554590     -1.11830139649868     -3.39368877603248
  H   -1.91298156238175     -2.07092038860590     -1.98424690743341
  H   0.61935131140174      0.32863977878400     -1.94257197547852
  H   1.81777316381884      0.25595663974062     -0.66730004438605
  H   0.63794940385886      1.55867581761516     -0.67730177174054
  H   -0.14200945044509     -0.87353182565057      2.13640197829206
  H   0.52775573136027      0.73639619386187      1.77531266802718
  H   1.46363129068516     -0.69423107416065      1.44607857673569
  H   -0.50191932921058     -2.57358890794235      0.01812266207003
  H   1.18991381431902     -2.12246269015904      0.00018035204647
  H   0.26690566999731     -2.02087500743591     -1.47017535524877
  H   -1.02181821373544      1.60487067296537     -2.35126400971824
  H   -2.62544397918009      2.18940934585725     -1.90286753545980
  H   -2.41757841580206      1.22387044206739     -3.34927423738278
  H   -4.20810779349555     -0.99809634328713     -0.96088354235274
  H   -4.15204749056321     -0.49273729067173     -2.63675323485932
  H   -4.46722892456008      0.69000293649864     -1.40154894125760
