41
Coordinates from ORCA-job tBu3C--Cl_0_1_bp86_xtb_6-31gpol_Int-SN1.scan
  C   -1.56893828683536      0.23353687598029     -0.18678424269767
  C   -0.11816025059851     -0.31046778712840      0.00527385670124
  Cl  -2.95541041362323     -2.21112707468362      1.12138749814014
  C   -2.26820820832645      0.06616294102675     -1.57278075167366
  C   -2.13323011983824      1.27536298597616      0.83014833869956
  C   -2.10278876929026      0.78573198405203      2.31231540003139
  C   -3.60148415138409      1.72803018890916      0.62589353848998
  C   -1.28042719303076      2.58617856368135      0.73193260925056
  C   0.02946249966885     -1.83106634714224     -0.31643874683531
  C   0.49807581363912     -0.17594740379424      1.42107067786477
  C   0.84563865036889      0.48358393517346     -0.94115879139191
  C   -1.70394148115553     -1.02882692820979     -2.51344516391315
  C   -2.12846280435775      1.40720312297076     -2.37094729724789
  C   -3.78641076992196     -0.28323530725290     -1.47112543771229
  H   -0.23545555490537      2.42614430965097      0.96802690791338
  H   -1.68202602070168      3.29418426212225      1.45337294647789
  H   -1.35025342681247      3.02594760496867     -0.25821935706982
  H   -4.27413100154147      0.89322667884033      0.78797961082823
  H   -3.78892827820895      2.17793708721794     -0.34092726128958
  H   -3.82183009388491      2.48800136556862      1.37402524237842
  H   -2.28773904535260     -0.28394639513512      2.34234121894326
  H   -2.90295287908568      1.27909506350797      2.85801300160458
  H   -1.17797852227913      1.02009706230847      2.82192309579151
  H   -0.65887239260378     -0.89398289629059     -2.76235167265414
  H   -2.25852768790803     -0.98067573730492     -3.44935820108567
  H   -1.86281676334212     -2.00982901243932     -2.07981961754226
  H   0.58798396497938      0.37748423250183     -1.98791509405179
  H   1.84723877589802      0.08347670288335     -0.80066448979338
  H   0.85819824441719      1.53996698374821     -0.69105512647536
  H   -0.05054181274602     -0.79108396068194      2.12551774056716
  H   0.55251558522829      0.84477920929696      1.77804980777900
  H   1.52063542328340     -0.54749149868151      1.37489161790418
  H   -0.87875703958954     -2.35069896819363     -0.02589165861021
  H   0.84859533704494     -2.23347294027350      0.27393083723599
  H   0.25797416496430     -2.02892955701112     -1.35496952896815
  H   -1.08585078938529      1.64467604560442     -2.55868115690343
  H   -2.59046286274929      2.24680218311530     -1.86602359975139
  H   -2.62991278206370      1.27426364394142     -3.32694044353951
  H   -3.95363581448549     -0.91442005836643     -0.60339134129367
  H   -4.07350634780304     -0.84682278552139     -2.35509344371263
  H   -4.42465932898155      0.58896005756401     -1.42811805538835
