14
Coordinates from ORCA-job tBu3C--Cl_0_1_bp86_xtb_6-31gpol_Int-SN1.scan.QMRegion
  C   -1.53065134105144      0.30130009238184     -0.22314231751258
  C   -0.10743250365201     -0.27183177154208      0.00660736776848
  Cl  -3.09744058370295     -2.45875931668707      1.25240617141907
  C   -2.23541626482201      0.08341231813257     -1.58810018435598
  C   -2.13051249926922      1.30114711374992      0.80031987859710
  H   -0.05816098314418     -1.34905491632327     -0.17534095004124
  H   0.33839922851314     -0.16368649955036      1.00102804221674
  H   0.59388480212142      0.24421366263146     -0.68104281257726
  H   -1.83008720804590     -0.67901707852280     -2.26277069483892
  H   -2.18737444537693      1.03175448349885     -2.16324995581472
  H   -3.28263775575938     -0.21279586710883     -1.47344041667178
  H   -2.14104770885185      0.89923871874888      1.81744085976986
  H   -3.16255865406629      1.63603085736520      0.65116087077292
  H   -1.52171176210241      2.22868439794902      0.78330028839428
