41
Coordinates from ORCA-job tBu3C--Cl_0_1_bp86_xtb_6-31gpol_Int-SN1.scan
  C   -1.48666894711714      0.37840801165265     -0.26466791156254
  C   -0.08995242320510     -0.22565612081034      0.00307144550701
  Cl  -3.45191514000522     -3.09242697203171      1.59304887096840
  C   -2.19894402835639      0.10971911334316     -1.60936626526953
  C   -2.12256169276030      1.33746970486721      0.76641158733268
  C   -2.18383417134118      0.68243052772466      2.18723865196701
  C   -3.57657610067592      1.83300526794344      0.54055977961037
  C   -1.26110079256529      2.64630730855522      0.82399878515129
  C   -0.09557179351427     -1.77857105447229     -0.19665266894890
  C   0.55243190247199     -0.05033268440596      1.40563706652138
  C   0.93261073955545      0.43142891339434     -0.98748958035269
  C   -1.61034206179829     -0.95185785536391     -2.57743217301623
  C   -2.21118154337577      1.44022229596130     -2.43886186389329
  C   -3.66682715436202     -0.38583790070655     -1.38346068710681
  H   -0.19490515412591      2.46196296333509      0.78901975898475
  H   -1.49321646766633      3.17230188581092      1.74688333347372
  H   -1.51435489843754      3.29073912840923     -0.01467941373852
  H   -4.28524859804136      1.03503913009498      0.73575655379927
  H   -3.75730943379728      2.25497686590629     -0.44052026285201
  H   -3.76099921766538      2.62394947081751      1.26688238406369
  H   -2.42230235031762     -0.37743181998421      2.11704282847493
  H   -2.98485510107125      1.15940011735418      2.74723330007909
  H   -1.27417151192264      0.81758121844645      2.75476629896582
  H   -0.55739760498452     -0.82199326963311     -2.79580662756787
  H   -2.14609435860750     -0.85536229211989     -3.52127036336877
  H   -1.78846683786816     -1.95278637668264     -2.19866212906211
  H   0.54115738723983      0.55857851525784     -1.98878590806322
  H   1.81819447581040     -0.19748267270296     -1.03727274580895
  H   1.22472835880782      1.41177331666411     -0.61819322381117
  H   0.05696680581028     -0.68466967009843      2.13310191186622
  H   0.57441075053956      0.97224613298277      1.76213891565116
  H   1.58699063857989     -0.38299459667229      1.32705199916879
  H   -1.02457390409236     -2.21440040116895      0.16681919151130
  H   0.71415544063360     -2.20023430366744      0.39434565259179
  H   0.07201757688067     -2.07355605434075     -1.22266482377743
  H   -1.24531850598439      1.58421979933790     -2.91759401692277
  H   -2.41785726305125      2.31868493266862     -1.84088232023444
  H   -2.97159798995326      1.35851225121221     -3.21175462446621
  H   -3.72504947158375     -1.04946748210346     -0.52247690233247
  H   -3.97045063350774     -0.95877081608086     -2.25655895835872
  H   -4.37400135787417      0.42368390380568     -1.27196137817399
