41
Coordinates from ORCA-job tBu3C--Cl_0_1_bp86_xtb_6-31gpol_Int-SN1.scan.activeRegion
  C   -1.48582919034184      0.38012570498117     -0.26624258628107
  C   -0.08695344900483     -0.22132403547711     -0.00097619168278
  Cl  -3.71093498561034     -3.56278722044318      1.85562958737735
  C   -2.19683288963424      0.11677326034028     -1.61355541814006
  C   -2.11906515937075      1.34246058951823      0.76424896187183
  C   -2.17925480831635      0.71543223347871      2.19766660139206
  C   -3.57361077260891      1.83837836914426      0.53853322215640
  C   -1.25826870217301      2.65270764076497      0.81309029703746
  C   -0.06254856113890     -1.77314469447660     -0.20750963684921
  C   0.55525092439637     -0.04624780201829      1.40234255853068
  C   0.93394035436113      0.44429752174015     -0.98835578597153
  C   -1.60873955096969     -0.94527536680677     -2.58238545151472
  C   -2.19940054169510      1.44845925466655     -2.44208952843901
  C   -3.67250868481438     -0.36688045513371     -1.41472031722399
  H   -0.19198075030449      2.46800162415673      0.78174795701499
  H   -1.49144851676322      3.18634624766140      1.73131662963316
  H   -1.50951980544401      3.29079298891421     -0.03097211080536
  H   -4.28416587535989      1.04358743893183      0.74145337173651
  H   -3.75516067899646      2.25433316960118     -0.44492719240993
  H   -3.75606176447766      2.63507275050546      1.25892558390963
  H   -2.47871974278624     -0.32970390695409      2.16443676068372
  H   -2.93807900306505      1.24887960781660      2.76632396823670
  H   -1.25150610353183      0.81021925839592      2.74269148173033
  H   -0.55416742754818     -0.81931576745449     -2.79498032368267
  H   -2.13795982347398     -0.84313461044493     -3.52922861205152
  H   -1.79434916605554     -1.94733628654533     -2.20931801171445
  H   0.54417932406216      0.56826948355270     -1.99072387002216
  H   1.82484299956230     -0.17720367087538     -1.03650218717040
  H   1.21747078687267      1.42697007691896     -0.61865928724906
  H   0.06596753645923     -0.68680655913106      2.12902961966399
  H   0.57055787707957      0.97561212599943      1.76119299133379
  H   1.59234189340384     -0.37046823315447      1.32295771602375
  H   -0.95079678966587     -2.24520562332439      0.20633122628119
  H   0.79369517873830     -2.17079179369830      0.33330538564186
  H   0.05477602018747     -2.06294262062013     -1.24139216118440
  H   -1.22949837304269      1.59193584898540     -2.91265170834636
  H   -2.40967322218357      2.32631214108373     -1.84440693010362
  H   -2.95352037735184      1.37009961155014     -3.22149008865207
  H   -3.75078411060552     -1.07981223707407     -0.59703716896498
  H   -3.98310657775338     -0.88197843312412     -2.32130176452823
  H   -4.36855992433504      0.44410080054842     -1.25780412026782
