14
Coordinates from ORCA-job tBu3C--Cl_0_1_bp86_xtb_6-31gpol_Int-SN1.scan.QMRegion
  C   -1.48943669811086      0.37360206406203     -0.26188831982730
  C   -0.09176626205970     -0.22916057228724      0.00418622068820
  Cl  -3.36632680467511     -2.93830525584267      1.51252799371109
  C   -2.20129984813464      0.10641932782545     -1.60720959517044
  C   -2.12404570328055      1.33417370949867      0.76870922869435
  H   -0.09960865391044     -1.31533038772416     -0.13841236319615
  H   0.36146158439490     -0.10685761644635      0.99476300711567
  H   0.63115420206859      0.23779676835871     -0.69641094679196
  H   -1.78566404546060     -0.64427325863380     -2.29048955665109
  H   -2.20875428850906      1.04893096251511     -2.19420887854684
  H   -3.22885227699931     -0.23955652262671     -1.44508146588476
  H   -2.16444685174566      0.87308395055159      1.76179017654691
  H   -3.15091134741216      1.68353263994851      0.60948561885307
  H   -1.51381675172866      2.26034353454951      0.80790841471689
