41
Coordinates from ORCA-job tBu3C--Cl_0_1_bp86_xtb_6-31gpol_Int-SN1.scan
  C   -1.53065134105144      0.30130009238184     -0.22314231751258
  C   -0.10743250365201     -0.27183177154208      0.00660736776848
  Cl  -3.09744058370295     -2.45875931668707      1.25240617141907
  C   -2.23541626482201      0.08341231813257     -1.58810018435598
  C   -2.13051249926922      1.30114711374992      0.80031987859710
  C   -2.14556585688975      0.72687559563826      2.25364510699844
  C   -3.59182984149945      1.77532302138868      0.58911939703900
  C   -1.27048743199768      2.61143678086250      0.77627707885077
  C   -0.03702296314351     -1.81119540122977     -0.25339876399361
  C   0.52388464966003     -0.11869335556079      1.41475036005499
  C   0.88338399216012      0.45723383764574     -0.96490030276213
  C   -1.66181562708613     -0.99553818107052     -2.54285886401404
  C   -2.16758495557142      1.42239763212271     -2.40016688923627
  C   -3.73082776487770     -0.33956709019118     -1.42436831228068
  H   -0.21130530227678      2.43035378561979      0.90731925893857
  H   -1.60943683617414      3.24850537244799      1.58977320613978
  H   -1.41319173984328      3.14133080763522     -0.16162642948311
  H   -4.27883377403992      0.95531130214843      0.76776340617030
  H   -3.78080327460672      2.21490498837826     -0.38239799135225
  H   -3.79385217660655      2.54820862835377      1.32956516292185
  H   -2.37068002848060     -0.33750950060344      2.21989623184831
  H   -2.93946493530335      1.21952778395176      2.80946527630048
  H   -1.22484439765732      0.89988382299531      2.79260886408798
  H   -0.61336017305192     -0.86635232704828     -2.78134005247422
  H   -2.20975539454559     -0.92455211267802     -3.48155413808639
  H   -1.83198638869297     -1.98472239871754     -2.13190184195087
  H   0.56257190492141      0.43520052514086     -1.99856585010514
  H   1.84641043219154     -0.04330518601266     -0.89735608915131
  H   1.01038642530042      1.49490250169970     -0.66841769399597
  H   -0.00145419111156     -0.74414906290185      2.12829277507121
  H   0.56668056595923      0.90190257929952      1.77441967245490
  H   1.55157768766643     -0.47403880820686      1.35152562333590
  H   -0.95816800320129     -2.27872324862632      0.08961675927917
  H   0.78378674395515     -2.22094412341344      0.32994714459044
  H   0.15040747491538     -2.06323893261553     -1.28755662951474
  H   -1.14583940365456      1.62789385570597     -2.70774200293684
  H   -2.53514907136653      2.27721220948500     -1.84698736207331
  H   -2.78087517026622      1.30457483473464     -3.29041316608447
  H   -3.82853379808747     -0.99730381558296     -0.56261085243598
  H   -4.02836417207625     -0.89890061124465     -2.30785284999449
  H   -4.40658644542332      0.49929428691452     -1.33606669107230
