14
Coordinates from ORCA-job tBu3C--Cl_0_1_bp86_xtb_6-31gpol_Int-SN1.scan.QMRegion
  C   -1.51537221557037      0.32823144218633     -0.23777094470002
  C   -0.10199500918076     -0.25609038805068      0.00679910437948
  Cl  -3.17164273456760     -2.58837133469307      1.32434174289491
  C   -2.22257689732007      0.09057001619603     -1.59529748349378
  C   -2.12896462060011      1.31301584355499      0.78820467526098
  H   -0.07446762454982     -1.33741076939983     -0.15763428594917
  H   0.34709440475634     -0.14241909707865      0.99956811056218
  H   0.60771210372680      0.24105682020366     -0.68633873674579
  H   -1.81314536463875     -0.66660784295540     -2.27407841106997
  H   -2.19688901073595      1.03744630258317     -2.17453535913628
  H   -3.26175590631709     -0.22777573586549     -1.46313527361407
  H   -2.15350100058268      0.88783392938957      1.79612070036187
  H   -3.15869595852657      1.65468739220853      0.63554172057194
  H   -1.51841884765384      2.23969028464658      0.79327735498814
