12
XYZ file generated by orca_plot on BaseName=benzene_0_1_wb2plyp_def2-svp.tddft
  C       1.392214     -0.223483      0.005510
  C       0.509870     -1.315569     -0.008856
  C      -0.877466     -1.097910     -0.013889
  C      -1.382664      0.212515     -0.004507
  C      -0.500318      1.304570      0.009868
  C       0.887037      1.086920      0.014878
  H       2.474890     -0.393936      0.009536
  H       0.904025     -2.337891     -0.016204
  H      -1.565462     -1.950407     -0.025216
  H      -2.465351      0.382893     -0.008526
  H      -0.894438      2.326907      0.017327
  H       1.575013      1.939431      0.026088
