30

Mo       7.1629549226     15.7209655400     13.5006043221                 
N        5.4711313844     15.1973212400     14.4331704027                 
N        8.7465128286     14.5191918400     13.7040405520                 
N        7.5139289106     17.6907508800     13.2953677715                 
N        7.6951661598     16.1988662000     15.5871759195                 
N        6.6039220823     15.2318296000     11.4626413813                 
H        6.6777938668     14.3330072000     11.3348186174                 
H        7.1557197576     15.6651904000     10.8829381420                 
H        5.7434068712     15.4886360000     11.3132147700                 
C        5.3201523095     15.6671967000     15.8086153557                 
H        4.6635117600     15.1074390000     16.2947019228                 
H        5.0063705353     16.6041388000     15.8212176000                 
C        6.6997408769     15.5572514600     16.4567307785                 
H        6.6920103156     16.0022488000     17.3424885231                 
H        6.9336998663     14.6058640000     16.5899545043                 
C        9.2222184690     14.3370198000     15.1190925586                 
H        8.6814680741     13.6428400000     15.5745736752                 
H       10.1703546008     14.0521252000     15.1262938411                 
C        9.0721010973     15.6559614200     15.8194172794                 
H        9.2226347183     15.5367872000     16.7915904137                 
H        9.7453360440     16.2951686000     15.4773563618                 
C        8.1938959660     18.3255442000     14.4493732883                 
H        8.0070275138     19.2965934000     14.4601752120                 
H        9.1742021454     18.1971410000     14.3791607842                 
C        7.6786222072     17.6843307200     15.7221999660                 
H        8.2466928823     17.9563850000     16.4873362291                 
H        6.7540984457     17.9924984000     15.9004317073                 
H        6.6186720037     18.1597180717     13.1575822722                 
H        5.4252965586     14.1784281440     14.4456615036                 
H        9.5144626193     14.9112022185     13.1590809369                 
