34
 g-Tensor orientation as XYZ file; He=chosen origin Ne=g1 Ar=g2 Kr=g3
Mo       7.161049476     15.739737568     13.552686442
N        5.471131333     15.197321263     14.433170360
N        8.746512826     14.519191866     13.704040608
N        7.513928861     17.690750887     13.295367754
N        7.695166260     16.198866147     15.587175926
N        6.603922088     15.231829596     11.462641381
H        7.300178866     14.609821153     11.024602587
H        6.582184532     16.069042244     10.861573152
H        5.689405081     14.766294873     11.323834567
C        5.318330480     15.472718681     15.889445391
H        4.718837242     14.691743639     16.407904896
H        4.803931319     16.445806765     16.083144850
C        6.730529293     15.489985779     16.521528914
H        6.730687809     15.959049068     17.529272725
H        7.091922490     14.450769508     16.617908270
C        9.341792361     14.392155068     15.055763560
H        8.898896189     13.552111697     15.643655158
H       10.439165713     14.205748642     15.018849415
C        9.115827362     15.727841202     15.802262506
H        9.351318832     15.638174318     16.885554097
H        9.771732146     16.497145802     15.359351771
C        8.072414170     18.413420639     14.460313772
H        7.732134576     19.471512524     14.510628237
H        9.187754234     18.441833792     14.435861729
C        7.596196127     17.702185821     15.754170308
H        8.166574558     18.034872982     16.649562634
H        6.527761596     17.934893304     15.909816580
H        7.282312647     18.335593698     12.527951766
H        4.557056105     14.915977003     14.040522414
H        8.871089180     13.632707950     13.191849225
He       7.411932466     15.953113550     14.508914810
Ne       8.112446468     16.255496457     14.290033845
Ar       7.747766565     15.239397438     14.597734481
Kr       7.248960821     15.782122167     13.751111171
