282
Coordinates from ORCA-job Mo-HIPT-NH3_0_2_bp86_lanl2dz_6-31gpol.opt
  Mo  7.16295504158789     15.72096604099244     13.50060418018980
  N   5.47113099209176     15.19732099307845     14.43316996395089
  N   8.74651299538041     14.51919199406399     13.70404097007686
  N   7.51392899312370     17.69075098950136     13.29536797228750
  N   7.69516599292810     16.19886599292546     15.58717595376366
  N   6.60392198819068     15.23182999064180     11.46264095588630
  H   7.08233898928710     14.34823322629567     11.20887683844624
  H   6.87851185408972     15.94589059014351     10.76337607893194
  H   5.58369219262379     15.06449351536935     11.36470429604153
  C   5.27819550397793     15.73191133207472     15.82742408701110
  H   4.53055331766888     15.13317110266517     16.38618658169673
  H   4.91810556633217     16.78469110404033     15.82015057375635
  C   6.63716798505680     15.63764428546389     16.52751742534016
  H   6.65248222134930     16.17415645701552     17.49981548170355
  H   6.87670846894414     14.57444315809183     16.70436930969337
  C   9.15593262190321     14.24831745173897     15.12544885563851
  H   8.51393639668498     13.47540462545292     15.60320743323088
  H   10.20022146687847     13.87875655255877     15.16948375242809
  C   9.04876646495777     15.57524134909555     15.88789987915245
  H   9.18359294164943     15.43841506387979     16.98237193521789
  H   9.82618154270865     16.26563147947291     15.51820235698918
  C   8.32114985317649     18.28518810296976     14.40444711187400
  H   8.22101259143615     19.38996909079255     14.42090540014351
  H   9.40435295846907     18.05385770471378     14.30218426819457
  C   7.77506801643628     17.71001559368004     15.71764807101805
  H   8.40237998469982     17.99330617835047     16.58976657389895
  H   6.75175874543219     18.09088021461064     15.87860828688896
  C   4.30222949787602     14.57626743472959     13.88151682894649
  C   4.41469627201944     13.36854679246382     13.12547578847181
  H   5.40877968632525     12.91603744878847     13.01359283898478
  C   3.26731467318864     12.71057706663801     12.61290592635417
  C   1.98549910001884     13.28650071536052     12.82704576645579
  H   1.09512914062092     12.78468473927230     12.43165434245254
  C   1.84091199784989     14.49143378722049     13.56248481142904
  C   2.99527935613309     15.11747241827071     14.09107760657550
  H   2.88016011096375     16.04613587730369     14.66193378271546
  C   3.34054418469486     11.37810284513626     11.90280897994164
  C   3.08908688369426     10.17081914574727     12.63487554120489
  C   3.04331963457789      8.93728948556553     11.94108332776939
  H   2.84409327865356      8.01954912944699     12.50907660361487
  C   3.24303611266093      8.85307068781673     10.54209497591727
  C   3.50695544537607     10.05173309576774      9.84132363272137
  H   3.66173276691859     10.00227338731641      8.75494174721550
  C   3.55750534062578     11.31186465063502     10.49147648501309
  C   2.85134677101008     10.18238257254902     14.15397838220229
  H   3.00615096724260     11.21567259153780     14.51398967550306
  C   1.38755522256130      9.78249330777690     14.49895725625586
  H   1.22415325223078      9.81604009097340     15.59272940984387
  H   1.16277540748736      8.75648552774637     14.15183316336084
  H   0.66498020465036     10.46822389525672     14.02040030061548
  C   3.86063531807607      9.27040854860238     14.90654323448477
  H   4.90318662133655      9.54818901805480     14.66738221400710
  H   3.72349922302034      8.20581377177576     14.63862411660961
  H   3.71843905835989      9.36176178453973     16.00018437555115
  C   3.17692814214363      7.51185373019247      9.80074596536253
  H   3.30306111881465      7.72447367144752      8.71930598249565
  C   1.79849969210572      6.81543637293132      9.97915682397873
  H   0.97428540530629      7.47428804730111      9.65088703442323
  H   1.61851454178088      6.54975649526086     11.03774400851497
  H   1.75565898184262      5.88148463559485      9.38729749726165
  C   4.33258176209710      6.56366348665528     10.23033889121062
  H   5.31641971282491      7.03817779569350     10.06365728319582
  H   4.29833792114838      5.61905838971143      9.65484172284575
  H   4.25581989913329      6.31036624472837     11.30437063059012
  C   3.82079422750498     12.57180325108209      9.65455561656390
  H   3.84924584363508     13.43466215022796     10.34692343277765
  C   2.67172466294872     12.83391343414191      8.64001334767556
  H   2.87142791884878     13.75138674139542      8.05479117903656
  H   1.70506541678048     12.95954799151512      9.16146139009305
  H   2.56770385499437     11.99283324961240      7.92928549851573
  C   5.19387177471132     12.49700697175509      8.92890550864761
  H   6.01757752391789     12.29790882255006      9.64169275511783
  H   5.40403032761106     13.44612940972755      8.40012621772677
  H   5.20285262578543     11.68549960851312      8.17748772708467
  C   0.47902681970941     15.11149333565588     13.75659171591114
  C   -0.10080000890528     15.88642620470782     12.69841414234322
  C   -1.36605810026885     16.48835586362493     12.89926825503056
  H   -1.80151196784116     17.08696062729409     12.08956357914029
  C   -2.08101453967100     16.34432075489876     14.11326164696576
  C   -1.49487779287301     15.56973924542475     15.13961697799759
  H   -2.04125247421089     15.44671300212844     16.08435245059216
  C   -0.22947669538002     14.94615943191689     14.98696586803747
  C   0.66489700857572     16.13503288453052     11.38873284395055
  H   1.47462394984771     15.38531124814513     11.32188792352830
  C   1.34405709920113     17.53430215052856     11.42601451616031
  H   1.92430027686228     17.72050377954923     10.50308942748178
  H   2.03304290185074     17.60667920315641     12.28792020894806
  H   0.59077822050458     18.33846590725227     11.52174638287216
  C   -0.21126285655674     15.97167684974344     10.11905414093778
  H   0.41102358340118     16.10250253851003      9.21369708915362
  H   -1.01923945005959     16.72532170639884     10.07248680073290
  H   -0.67503973473240     14.96858010227133     10.07943449672156
  C   -3.46113870866435     16.98713172707445     14.31018263646702
  H   -3.76248496320198     16.80821943535634     15.36227934149502
  C   -3.42940843381969     18.52475550156384     14.08721202321966
  H   -2.69457840850612     19.00800854468244     14.75676975507655
  H   -4.42366730320204     18.96846642993597     14.28565293453389
  H   -3.15267178978246     18.77290593717688     13.04592304290434
  C   -4.52580076684847     16.31823675088316     13.39327504759157
  H   -4.58876677826510     15.23187864699251     13.58594343652132
  H   -4.26975987681892     16.45990376464400     12.32690561638147
  H   -5.52615111330372     16.76029177702700     13.56444460904256
  C   0.34263170030466     14.11613174755954     16.14769307983318
  H   1.27614665401795     13.63962549221806     15.79546965133813
  C   0.70970404546849     15.02143296457649     17.35891441964960
  H   1.15461897670089     14.41934372619443     18.17418510896911
  H   -0.18609788109701     15.53055330967174     17.76151547896067
  H   1.43701017864127     15.80021226157103     17.06483062564563
  C   -0.62327916047091     12.97993768882421     16.58623317965470
  H   -0.86513638382871     12.31359752400210     15.73844801413870
  H   -1.57365833513477     13.38477748957618     16.98162207289722
  H   -0.15959303366233     12.37005304809345     17.38471764702989
  C   9.39903329673490     13.68455404922750     12.73762657876382
  C   9.90715597219343     14.25356427727487     11.52986032910318
  H   9.78836168558678     15.33306852712036     11.37275567407337
  C   10.63548378722627     13.46786204458797     10.59829262965491
  C   10.82773531026565     12.08447195505491     10.86352745343537
  H   11.39046765059185     11.47265853050707     10.14940193539397
  C   10.33047565907272     11.49003809961631     12.05335149461575
  C   9.63093635633061     12.29729567423681     12.98282552601505
  H   9.24890253007446     11.83992399994406     13.90290888162127
  C   11.29385085580834     14.07268660585411      9.37822480401227
  C   12.69674852711732     14.36786885601759      9.40257171400171
  C   13.31905278548614     14.84593389604761      8.22149831750330
  H   14.39495335359980     15.06316388684022      8.23545141773002
  C   12.60806051485085     15.03724777402628      7.01485005406664
  C   11.21869297473420     14.77026863111067      7.01954184122755
  H   10.64043279137787     14.91994594766335      6.09891892233279
  C   10.55118658889991     14.29241530714078      8.17409645491438
  C   13.53132527627530     14.23192371980991     10.68694120732038
  H   12.95528885378230     13.61870544901808     11.40331482152517
  C   13.74368653620102     15.62953115967751     11.33998080108672
  H   14.32738826493020     15.53762134722124     12.27584588774239
  H   12.77535116809567     16.10460929706548     11.57989517584800
  H   14.29303318303009     16.30344461647972     10.65578644953616
  C   14.89262424793767     13.52110672642221     10.45768340999416
  H   15.40495700007470     13.36149863979988     11.42500428456823
  H   15.56862323438240     14.12245898238584      9.82154341301616
  H   14.75462136562325     12.53770214001059      9.97269628002019
  C   13.32967786812255     15.51847910115599      5.74979376799439
  H   14.40664857319600     15.60980786439866      5.99915194651254
  C   13.20704674017045     14.49201364031139      4.58833015538831
  H   13.58706837124965     13.49982797944435      4.89209974216426
  H   13.78377973318675     14.83146612911426      3.70727508781986
  H   12.15325769717248     14.36975786746370      4.27496803044923
  C   12.83183667826430     16.92130720165396      5.29945708179578
  H   12.94840706251372     17.66366803017650      6.10891831156645
  H   11.76094697846603     16.89143883088730      5.02288572864020
  H   13.40006445726297     17.27197812489501      4.41712735975768
  C   9.03627943320320     14.05168147860620      8.11516751163953
  H   8.73632249601233     13.56111930919341      9.05997216598862
  C   8.62142000439846     13.10940184943409      6.95294098249381
  H   7.53456054994993     12.90746615980462      6.98991508026590
  H   9.15411921622006     12.14326072328239      7.01705658344933
  H   8.84587207628834     13.55569662605668      5.96611973804740
  C   8.27951712734096     15.40763493417216      8.02859783436276
  H   8.58843025928421     16.09047855667760      8.84240115982660
  H   7.18604760730936     15.25129105741378      8.09442594256131
  H   8.49038036407985     15.91948397399755      7.07077241194780
  C   10.54692090040767     10.02132418722492     12.32852756289527
  C   9.60828867963344      9.05614352002761     11.84012525076479
  C   9.82495269952943      7.68336753811916     12.11267479558985
  H   9.09950416994799      6.95060607904255     11.73710273266447
  C   10.94087984042620      7.23186743473515     12.85651242326918
  C   11.15531819797518      5.74055154517589     13.15530484950728
  H   12.11327246215044      5.64920829111757     13.70548444221556
  C   11.27672679463382      4.90091944387239     11.85142260698565
  H   12.11116807487216      5.25893226129715     11.22127194852802
  H   10.34939283251687      4.95845091018256     11.25271393201650
  H   11.45950099305815      3.83552457629289     12.08976991285980
  C   10.02740959909925      5.18147621975788     14.06934037733957
  H   9.97301012451860      5.73935890490237     15.02164145906373
  H   10.20796345322402      4.11468474890808     14.30359987054323
  H   9.04202850898601      5.25620441726115     13.57392158072528
  C   11.85205740364204      8.20145667312009     13.33345390168388
  H   12.72055028373299      7.86536410693517     13.91528309692919
  C   11.68128248154674      9.58718175934360     13.08437804156642
  C   8.34519910041966      9.47234404665025     11.06893900910663
  H   8.39871898245539     10.55984843832979     10.87243034152568
  C   8.23376319827108      8.76285527503512      9.69102753057229
  H   9.11342592611246      8.98168092093715      9.05817220299255
  H   7.32704567656081      9.10591398266652      9.15809570291435
  H   8.16188313601814      7.66458044499993      9.80220625585793
  C   7.07460670201837      9.21969873224633     11.92967520497463
  H   7.13158152906792      9.76958610524448     12.88714840197047
  H   6.96188014454743      8.14478200540572     12.16521668946052
  H   6.16331258488206      9.54679878546691     11.39651250015628
  C   12.69706635043516     10.58518366742563     13.66442158323905
  H   12.48039205225655     11.57970327584975     13.23192276721499
  C   14.16270456547731     10.22454214197489     13.29763847617185
  H   14.85541531899189     10.99898514295734     13.67807473520691
  H   14.29213207700910     10.14969071500741     12.20294318958706
  H   14.46662558325637      9.25923585629670     13.74330905365251
  C   12.52873302773538     10.70596820028879     15.20716543842396
  H   13.24227743195915     11.44352736191180     15.62179462039120
  H   12.71184083518418      9.73474221831064     15.70413940315465
  H   11.50377794994189     11.02939547398797     15.46643702744968
  C   7.33124938231399     18.53712310630792     12.16021412517717
  C   6.08595846603205     18.57240274525501     11.45490089806811
  H   5.25268160676065     17.96175178382237     11.82550692935097
  C   5.88202800015772     19.46605882389672     10.37123287705148
  C   6.94753634449564     20.31259206036680      9.95592529857037
  H   6.79009335165512     21.01254640812975      9.12770924290374
  C   8.19710948866369     20.29344984854996     10.63091264873893
  C   8.37373901588248     19.41501034482634     11.72428147424902
  H   9.34126665339908     19.40159061984926     12.23913819378328
  C   4.52856894920707     19.65115578459908      9.71856153847222
  C   3.62191243122385     20.62636222853443     10.25117380669394
  C   2.40601589555834     20.88162833032770      9.57094436686779
  H   1.71822630545638     21.63682268219190      9.97531398521249
  C   2.04973119225857     20.21254292406751      8.37628980996500
  C   2.94949204125176     19.24380745738845      7.87534290351755
  H   2.70052123090744     18.70992403477684      6.95046177282800
  C   4.17742167363612     18.95066428138512      8.52211429609216
  C   3.93406296614283     21.41758427352799     11.53163556273911
  H   4.92790577056062     21.10002152551056     11.89517117520556
  C   4.00573137523925     22.94677881334156     11.25869717311910
  H   4.29382388609965     23.48890962042226     12.17935612059641
  H   3.02834617832338     23.34425265352529     10.92594605610745
  H   4.74975770816517     23.17628220922550     10.47449356992580
  C   2.90586529106081     21.10778552069904     12.65667021118926
  H   3.17828442417767     21.64199964427287     13.58689029868420
  H   2.86926739465970     20.02510887276858     12.87441457947667
  H   1.88692461845860     21.42821044485235     12.36862546540724
  C   0.70509035271913     20.52198222392093      7.70250666501561
  H   0.43972957213040     21.56620384486235      7.96955060216775
  C   0.74782862542165     20.43556423615695      6.15526435685321
  H   1.55640671522833     21.06330451045581      5.73841996952983
  H   -0.21234268372697     20.77835617330108      5.72629179619260
  H   0.90833122926970     19.39663125539578      5.81052094425156
  C   -0.41726426865819     19.60112171788972      8.26806374000403
  H   -0.49610699516692     19.69800625113494      9.36601631983621
  H   -0.20446196078755     18.54053418213796      8.03780549034558
  H   -1.39704510931915     19.86165702201003      7.82390228660670
  C   5.11460191638579     17.90892025606976      7.89252119616876
  H   5.94518868247165     17.72940530315338      8.60110659303454
  C   5.74354552537049     18.44362528668317      6.57374251307409
  H   6.43702995481457     17.69755775398459      6.14123423462286
  H   6.30937982813466     19.37514748359876      6.75614316226295
  H   4.96204262512014     18.66240148492508      5.82175032388319
  C   4.39115913718899     16.55653987946438      7.64528853215157
  H   5.10123831976680     15.80312701342568      7.25505791204267
  H   3.58134936167030     16.66229950909226      6.89960555065328
  H   3.93991597078116     16.16756200078525      8.57718250443074
  C   9.32611695408421     21.20049248926896     10.20277021353083
  C   10.25550700907921     20.76424403814054      9.20716455372802
  C   11.31806426124362     21.62557347457152      8.83449550593936
  H   12.03359843630717     21.29325803334542      8.07039184093734
  C   11.49507166860550     22.90203429800822      9.41732650296205
  C   10.56834347383538     23.31150222014377     10.40524251097623
  H   10.68551498365215     24.29608199588243     10.87439853802640
  C   9.48616611432935     22.48961212501105     10.80640947315124
  C   10.15898070665630     19.37087656378772      8.56602054601443
  H   9.21676417079149     18.90270695310448      8.90633169184054
  C   11.32728923008070     18.46492367581054      9.04991697295374
  H   11.25171408414314     17.45239145447542      8.61213812174113
  H   11.31847026585535     18.36822615408845     10.15122481485379
  H   12.30590330512686     18.89115474408673      8.75749748601344
  C   10.11051435799695     19.43499975309888      7.01474551347907
  H   9.97588572338333     18.41984131024402      6.59561511764601
  H   11.04679979040159     19.84762200682622      6.59426047487401
  H   9.27386437249549     20.06855079772496      6.66691950254281
  C   12.69583107272937     23.77035698098462      9.01979896714370
  H   13.09677614704524     23.36399170262522      8.06812546550705
  C   13.82633058157236     23.66193183106247     10.08626201264304
  H   14.12939696488619     22.61022768471560     10.23861988241829
  H   13.48163371825858     24.05933511032752     11.05965186141883
  H   14.71665202239074     24.24040832724206      9.77407933376566
  C   12.32326698844690     25.25573197553663      8.76794765764508
  H   13.20306032253521     25.81498013114007      8.39766966299885
  H   11.98276757831940     25.75107372372774      9.69650172767697
  H   11.51532799526483     25.34508193132011      8.01926103234070
  C   8.53541715834285     22.98327994286598     11.90889651385475
  H   7.67116288066558     22.29471072305124     11.94461177161220
  C   9.22881561262967     22.92334687651254     13.30178911293105
  H   8.53664676639603     23.26085575547283     14.09691391031087
  H   10.12400894909796     23.57311192173598     13.32790842908221
  H   9.55241161208794     21.89249883362722     13.53783005615241
  C   7.98324149114937     24.40849918586021     11.63270309662954
  H   7.48752108823006     24.45976954265551     10.64640223001662
  H   8.78586867695369     25.16951969172887     11.64869238397279
  H   7.24445860717572     24.68868710651155     12.40712982824619
